examples/feeders/1_ALPE_1/007_transformadores.dss
New Transformer.TRF_25_1733A phases=1 windings=3 buses=[MRT_670911TRF_25_1733A.2 ET25_1733.1.4 ET25_1733.4.2] conns=[Wye Wye Wye] kvs=[13.3367912182804 0.22 0.22] kvas=[15 15 15] %loadloss=1.766667 %noloadloss=0.433333
New Linecode.LC_MRT_TRF_25_1733A_1 nphases=1 basefreq=60 r1=15000 x1=0 units=km normamps=0
New Linecode.LC_MRT_TRF_25_1733A_2 nphases=2 basefreq=60 r1=15000 x1=0 units=km normamps=0
New Linecode.LC_MRT_TRF_25_1733A_3 nphases=3 basefreq=60 r1=15000 x1=0 units=km normamps=0
New Linecode.LC_MRT_TRF_25_1733A_4 nphases=4 basefreq=60 r1=15000 x1=0 units=km normamps=0
New Line.Resist_MTR_TRF_25_1733A phases=1 bus1=670911.2 bus2= MRT_670911TRF_25_1733A.2 linecode=LC_MRT_TRF_25_1733A_1 length=0.001 units=km
New Reactor.TRF_25_1733A_R phases=1 bus1=ET25_1733.4 R=15 X=0 basefreq=60
New Transformer.TRF_25_4122A phases=3 windings=2 buses=[643841.1.2.3 ET25_4122.1.2.3.4] conns=[Delta Wye] kvs=[23.1 0.38] kvas=[30 30] %loadloss=2.1 %noloadloss=0.533333
New Reactor.TRF_25_4122A_R phases=1 bus1=ET25_4122.4 R=15 X=0 basefreq=60
New Transformer.TRF_25_4721A phases=1 windings=3 buses=[MRT_670951TRF_25_4721A.2 ET25_4721.1.4 ET25_4721.4.2] conns=[Wye Wye Wye] kvs=[13.3367912182804 0.22 0.22] kvas=[10 10 10] %loadloss=1.95 %noloadloss=0.5
New Linecode.LC_MRT_TRF_25_4721A_1 nphases=1 basefreq=60 r1=15000 x1=0 units=km normamps=0
New Linecode.LC_MRT_TRF_25_4721A_2 nphases=2 basefreq=60 r1=15000 x1=0 units=km normamps=0
New Linecode.LC_MRT_TRF_25_4721A_3 nphases=3 basefreq=60 r1=15000 x1=0 units=km normamps=0
New Linecode.LC_MRT_TRF_25_4721A_4 nphases=4 basefreq=60 r1=15000 x1=0 units=km normamps=0
New Line.Resist_MTR_TRF_25_4721A phases=1 bus1=670951.2 bus2= MRT_670951TRF_25_4721A.2 linecode=LC_MRT_TRF_25_4721A_1 length=0.001 units=km
New Reactor.TRF_25_4721A_R phases=1 bus1=ET25_4721.4 R=15 X=0 basefreq=60
New Transformer.TRF_25_6378A phases=1 windings=3 buses=[MRT_812141TRF_25_6378A.1 ET25_6378.1.4 ET25_6378.4.2] conns=[Wye Wye Wye] kvs=[13.3367912182804 0.22 0.22] kvas=[10 10 10] %loadloss=1.95 %noloadloss=0.5
New Linecode.LC_MRT_TRF_25_6378A_1 nphases=1 basefreq=60 r1=15000 x1=0 units=km normamps=0
New Linecode.LC_MRT_TRF_25_6378A_2 nphases=2 basefreq=60 r1=15000 x1=0 units=km normamps=0
New Linecode.LC_MRT_TRF_25_6378A_3 nphases=3 basefreq=60 r1=15000 x1=0 units=km normamps=0
New Linecode.LC_MRT_TRF_25_6378A_4 nphases=4 basefreq=60 r1=15000 x1=0 units=km normamps=0
New Line.Resist_MTR_TRF_25_6378A phases=1 bus1=812141.1 bus2= MRT_812141TRF_25_6378A.1 linecode=LC_MRT_TRF_25_6378A_1 length=0.001 units=km
New Reactor.TRF_25_6378A_R phases=1 bus1=ET25_6378.4 R=15 X=0 basefreq=60
New Transformer.TRF_4_10A phases=3 windings=2 buses=[331361.1.2.3 ET4_10.1.2.3.4] conns=[Delta Wye] kvs=[23.1 0.38] kvas=[45 45] %loadloss=1.866667 %noloadloss=0.477777
New Reactor.TRF_4_10A_R phases=1 bus1=ET4_10.4 R=15 X=0 basefreq=60
New Transformer.TRF_4_1295A phases=1 windings=3 buses=[MRT_103641TRF_4_1295A.3 ET4_1295.1.4 ET4_1295.4.2] conns=[Wye Wye Wye] kvs=[13.3367912182804 0.22 0.22] kvas=[15 15 15] %loadloss=1.766667 %noloadloss=0.433333
New Linecode.LC_MRT_TRF_4_1295A_1 nphases=1 basefreq=60 r1=15000 x1=0 units=km normamps=0
New Linecode.LC_MRT_TRF_4_1295A_2 nphases=2 basefreq=60 r1=15000 x1=0 units=km normamps=0
New Linecode.LC_MRT_TRF_4_1295A_3 nphases=3 basefreq=60 r1=15000 x1=0 units=km normamps=0
New Linecode.LC_MRT_TRF_4_1295A_4 nphases=4 basefreq=60 r1=15000 x1=0 units=km normamps=0
New Line.Resist_MTR_TRF_4_1295A phases=1 bus1=103641.3 bus2= MRT_103641TRF_4_1295A.3 linecode=LC_MRT_TRF_4_1295A_1 length=0.001 units=km
New Reactor.TRF_4_1295A_R phases=1 bus1=ET4_1295.4 R=15 X=0 basefreq=60
New Transformer.TRF_4_1296A phases=1 windings=3 buses=[MRT_86261TRF_4_1296A.3 ET4_1296.1.4 ET4_1296.4.2] conns=[Wye Wye Wye] kvs=[13.3367912182804 0.22 0.22] kvas=[25 25 25] %loadloss=1.56 %noloadloss=0.36
New Linecode.LC_MRT_TRF_4_1296A_1 nphases=1 basefreq=60 r1=15000 x1=0 units=km normamps=0
New Linecode.LC_MRT_TRF_4_1296A_2 nphases=2 basefreq=60 r1=15000 x1=0 units=km normamps=0
New Linecode.LC_MRT_TRF_4_1296A_3 nphases=3 basefreq=60 r1=15000 x1=0 units=km normamps=0
New Linecode.LC_MRT_TRF_4_1296A_4 nphases=4 basefreq=60 r1=15000 x1=0 units=km normamps=0
New Line.Resist_MTR_TRF_4_1296A phases=1 bus1=86261.3 bus2= MRT_86261TRF_4_1296A.3 linecode=LC_MRT_TRF_4_1296A_1 length=0.001 units=km
New Reactor.TRF_4_1296A_R phases=1 bus1=ET4_1296.4 R=15 X=0 basefreq=60
New Transformer.TRF_4_1399A phases=3 windings=2 buses=[304221.1.2.3 ET4_1399.1.2.3.4] conns=[Delta Wye] kvs=[23.1 0.38] kvas=[75 75] %loadloss=3.84 %noloadloss=0.966666
New Reactor.TRF_4_1399A_R phases=1 bus1=ET4_1399.4 R=15 X=0 basefreq=60
New Transformer.TRF_4_1400A phases=1 windings=3 buses=[MRT_440492TRF_4_1400A.1 ET4_1400.1.4 ET4_1400.4.2] conns=[Wye Wye Wye] kvs=[13.3367912182804 0.22 0.22] kvas=[5 5 5] %loadloss=2.1 %noloadloss=0.7
New Linecode.LC_MRT_TRF_4_1400A_1 nphases=1 basefreq=60 r1=15000 x1=0 units=km normamps=0
New Linecode.LC_MRT_TRF_4_1400A_2 nphases=2 basefreq=60 r1=15000 x1=0 units=km normamps=0
New Linecode.LC_MRT_TRF_4_1400A_3 nphases=3 basefreq=60 r1=15000 x1=0 units=km normamps=0
New Linecode.LC_MRT_TRF_4_1400A_4 nphases=4 basefreq=60 r1=15000 x1=0 units=km normamps=0
New Line.Resist_MTR_TRF_4_1400A phases=1 bus1=440492.1 bus2= MRT_440492TRF_4_1400A.1 linecode=LC_MRT_TRF_4_1400A_1 length=0.001 units=km
New Reactor.TRF_4_1400A_R phases=1 bus1=ET4_1400.4 R=15 X=0 basefreq=60
New Transformer.TRF_4_1446A phases=1 windings=3 buses=[MRT_771261TRF_4_1446A.3 ET4_1446.1.4 ET4_1446.4.2] conns=[Wye Wye Wye] kvs=[13.3367912182804 0.22 0.22] kvas=[10 10 10] %loadloss=1.95 %noloadloss=0.5
New Linecode.LC_MRT_TRF_4_1446A_1 nphases=1 basefreq=60 r1=15000 x1=0 units=km normamps=0
New Linecode.LC_MRT_TRF_4_1446A_2 nphases=2 basefreq=60 r1=15000 x1=0 units=km normamps=0
New Linecode.LC_MRT_TRF_4_1446A_3 nphases=3 basefreq=60 r1=15000 x1=0 units=km normamps=0
New Linecode.LC_MRT_TRF_4_1446A_4 nphases=4 basefreq=60 r1=15000 x1=0 units=km normamps=0
New Line.Resist_MTR_TRF_4_1446A phases=1 bus1=771261.3 bus2= MRT_771261TRF_4_1446A.3 linecode=LC_MRT_TRF_4_1446A_1 length=0.001 units=km
New Reactor.TRF_4_1446A_R phases=1 bus1=ET4_1446.4 R=15 X=0 basefreq=60
New Transformer.TRF_4_1447A phases=1 windings=3 buses=[MRT_97631TRF_4_1447A.2 ET4_1447.1.4 ET4_1447.4.2] conns=[Wye Wye Wye] kvs=[13.3367912182804 0.22 0.22] kvas=[10 10 10] %loadloss=1.95 %noloadloss=0.5
New Linecode.LC_MRT_TRF_4_1447A_1 nphases=1 basefreq=60 r1=15000 x1=0 units=km normamps=0
New Linecode.LC_MRT_TRF_4_1447A_2 nphases=2 basefreq=60 r1=15000 x1=0 units=km normamps=0
New Linecode.LC_MRT_TRF_4_1447A_3 nphases=3 basefreq=60 r1=15000 x1=0 units=km normamps=0
New Linecode.LC_MRT_TRF_4_1447A_4 nphases=4 basefreq=60 r1=15000 x1=0 units=km normamps=0
New Line.Resist_MTR_TRF_4_1447A phases=1 bus1=97631.2 bus2= MRT_97631TRF_4_1447A.2 linecode=LC_MRT_TRF_4_1447A_1 length=0.001 units=km
New Reactor.TRF_4_1447A_R phases=1 bus1=ET4_1447.4 R=15 X=0 basefreq=60
New Transformer.TRF_4_1448A phases=1 windings=3 buses=[MRT_97851TRF_4_1448A.1 ET4_1448.1.4 ET4_1448.4.2] conns=[Wye Wye Wye] kvs=[13.3367912182804 0.22 0.22] kvas=[15 15 15] %loadloss=1.766667 %noloadloss=0.433333
New Linecode.LC_MRT_TRF_4_1448A_1 nphases=1 basefreq=60 r1=15000 x1=0 units=km normamps=0
New Linecode.LC_MRT_TRF_4_1448A_2 nphases=2 basefreq=60 r1=15000 x1=0 units=km normamps=0
New Linecode.LC_MRT_TRF_4_1448A_3 nphases=3 basefreq=60 r1=15000 x1=0 units=km normamps=0
New Linecode.LC_MRT_TRF_4_1448A_4 nphases=4 basefreq=60 r1=15000 x1=0 units=km normamps=0
New Line.Resist_MTR_TRF_4_1448A phases=1 bus1=97851.1 bus2= MRT_97851TRF_4_1448A.1 linecode=LC_MRT_TRF_4_1448A_1 length=0.001 units=km
New Reactor.TRF_4_1448A_R phases=1 bus1=ET4_1448.4 R=15 X=0 basefreq=60
New Transformer.TRF_4_1694A phases=1 windings=3 buses=[MRT_101731TRF_4_1694A.2 ET4_1694.1.4 ET4_1694.4.2] conns=[Wye Wye Wye] kvs=[13.3367912182804 0.22 0.22] kvas=[5 5 5] %loadloss=2.1 %noloadloss=0.7
New Linecode.LC_MRT_TRF_4_1694A_1 nphases=1 basefreq=60 r1=15000 x1=0 units=km normamps=0
New Linecode.LC_MRT_TRF_4_1694A_2 nphases=2 basefreq=60 r1=15000 x1=0 units=km normamps=0
New Linecode.LC_MRT_TRF_4_1694A_3 nphases=3 basefreq=60 r1=15000 x1=0 units=km normamps=0
New Linecode.LC_MRT_TRF_4_1694A_4 nphases=4 basefreq=60 r1=15000 x1=0 units=km normamps=0
New Line.Resist_MTR_TRF_4_1694A phases=1 bus1=101731.2 bus2= MRT_101731TRF_4_1694A.2 linecode=LC_MRT_TRF_4_1694A_1 length=0.001 units=km
New Reactor.TRF_4_1694A_R phases=1 bus1=ET4_1694.4 R=15 X=0 basefreq=60
New Transformer.TRF_4_1753A phases=3 windings=2 buses=[331381.1.2.3 ET4_1753.1.2.3.4] conns=[Delta Wye] kvs=[23.1 0.38] kvas=[15 15] %loadloss=2.5 %noloadloss=0.633333
New Reactor.TRF_4_1753A_R phases=1 bus1=ET4_1753.4 R=15 X=0 basefreq=60
New Transformer.TRF_4_1826A phases=1 windings=3 buses=[MRT_147392TRF_4_1826A.1 ET4_1826.1.4 ET4_1826.4.2] conns=[Wye Wye Wye] kvs=[13.3367912182804 0.22 0.22] kvas=[37.5 37.5 37.5] %loadloss=1.413333 %noloadloss=0.36
New Linecode.LC_MRT_TRF_4_1826A_1 nphases=1 basefreq=60 r1=15000 x1=0 units=km normamps=0
New Linecode.LC_MRT_TRF_4_1826A_2 nphases=2 basefreq=60 r1=15000 x1=0 units=km normamps=0
New Linecode.LC_MRT_TRF_4_1826A_3 nphases=3 basefreq=60 r1=15000 x1=0 units=km normamps=0
New Linecode.LC_MRT_TRF_4_1826A_4 nphases=4 basefreq=60 r1=15000 x1=0 units=km normamps=0
New Line.Resist_MTR_TRF_4_1826A phases=1 bus1=147392.1 bus2= MRT_147392TRF_4_1826A.1 linecode=LC_MRT_TRF_4_1826A_1 length=0.001 units=km
New Reactor.TRF_4_1826A_R phases=1 bus1=ET4_1826.4 R=15 X=0 basefreq=60
New Transformer.TRF_4_1985A phases=1 windings=3 buses=[MRT_118471TRF_4_1985A.3 ET4_1985.1.4 ET4_1985.4.2] conns=[Wye Wye Wye] kvs=[13.3367912182804 0.22 0.22] kvas=[10 10 10] %loadloss=1.95 %noloadloss=0.5
New Linecode.LC_MRT_TRF_4_1985A_1 nphases=1 basefreq=60 r1=15000 x1=0 units=km normamps=0
New Linecode.LC_MRT_TRF_4_1985A_2 nphases=2 basefreq=60 r1=15000 x1=0 units=km normamps=0
New Linecode.LC_MRT_TRF_4_1985A_3 nphases=3 basefreq=60 r1=15000 x1=0 units=km normamps=0
New Linecode.LC_MRT_TRF_4_1985A_4 nphases=4 basefreq=60 r1=15000 x1=0 units=km normamps=0
New Line.Resist_MTR_TRF_4_1985A phases=1 bus1=118471.3 bus2= MRT_118471TRF_4_1985A.3 linecode=LC_MRT_TRF_4_1985A_1 length=0.001 units=km
New Reactor.TRF_4_1985A_R phases=1 bus1=ET4_1985.4 R=15 X=0 basefreq=60
New Transformer.TRF_4_2047A phases=1 windings=3 buses=[MRT_97811TRF_4_2047A.3 ET4_2047.1.4 ET4_2047.4.2] conns=[Wye Wye Wye] kvs=[13.3367912182804 0.22 0.22] kvas=[37.5 37.5 37.5] %loadloss=1.413333 %noloadloss=0.36
New Linecode.LC_MRT_TRF_4_2047A_1 nphases=1 basefreq=60 r1=15000 x1=0 units=km normamps=0
New Linecode.LC_MRT_TRF_4_2047A_2 nphases=2 basefreq=60 r1=15000 x1=0 units=km normamps=0
New Linecode.LC_MRT_TRF_4_2047A_3 nphases=3 basefreq=60 r1=15000 x1=0 units=km normamps=0
New Linecode.LC_MRT_TRF_4_2047A_4 nphases=4 basefreq=60 r1=15000 x1=0 units=km normamps=0
New Line.Resist_MTR_TRF_4_2047A phases=1 bus1=97811.3 bus2= MRT_97811TRF_4_2047A.3 linecode=LC_MRT_TRF_4_2047A_1 length=0.001 units=km
New Reactor.TRF_4_2047A_R phases=1 bus1=ET4_2047.4 R=15 X=0 basefreq=60
New Transformer.TRF_4_2444A phases=1 windings=3 buses=[MRT_360551TRF_4_2444A.1 ET4_2444.1.4 ET4_2444.4.2] conns=[Wye Wye Wye] kvs=[13.3367912182804 0.22 0.22] kvas=[37.5 37.5 37.5] %loadloss=1.413333 %noloadloss=0.36
New Linecode.LC_MRT_TRF_4_2444A_1 nphases=1 basefreq=60 r1=15000 x1=0 units=km normamps=0
New Linecode.LC_MRT_TRF_4_2444A_2 nphases=2 basefreq=60 r1=15000 x1=0 units=km normamps=0
New Linecode.LC_MRT_TRF_4_2444A_3 nphases=3 basefreq=60 r1=15000 x1=0 units=km normamps=0
New Linecode.LC_MRT_TRF_4_2444A_4 nphases=4 basefreq=60 r1=15000 x1=0 units=km normamps=0
New Line.Resist_MTR_TRF_4_2444A phases=1 bus1=360551.1 bus2= MRT_360551TRF_4_2444A.1 linecode=LC_MRT_TRF_4_2444A_1 length=0.001 units=km
New Reactor.TRF_4_2444A_R phases=1 bus1=ET4_2444.4 R=15 X=0 basefreq=60
New Transformer.TRF_4_2445A phases=1 windings=3 buses=[MRT_312111TRF_4_2445A.1 ET4_2445.1.4 ET4_2445.4.2] conns=[Wye Wye Wye] kvs=[13.3367912182804 0.22 0.22] kvas=[25 25 25] %loadloss=1.56 %noloadloss=0.36
New Linecode.LC_MRT_TRF_4_2445A_1 nphases=1 basefreq=60 r1=15000 x1=0 units=km normamps=0
New Linecode.LC_MRT_TRF_4_2445A_2 nphases=2 basefreq=60 r1=15000 x1=0 units=km normamps=0
New Linecode.LC_MRT_TRF_4_2445A_3 nphases=3 basefreq=60 r1=15000 x1=0 units=km normamps=0
New Linecode.LC_MRT_TRF_4_2445A_4 nphases=4 basefreq=60 r1=15000 x1=0 units=km normamps=0
New Line.Resist_MTR_TRF_4_2445A phases=1 bus1=312111.1 bus2= MRT_312111TRF_4_2445A.1 linecode=LC_MRT_TRF_4_2445A_1 length=0.001 units=km
New Reactor.TRF_4_2445A_R phases=1 bus1=ET4_2445.4 R=15 X=0 basefreq=60
New Transformer.TRF_4_2635A phases=1 windings=3 buses=[MRT_444981TRF_4_2635A.1 ET4_2635.1.4 ET4_2635.4.2] conns=[Wye Wye Wye] kvs=[13.3367912182804 0.22 0.22] kvas=[15 15 15] %loadloss=1.766667 %noloadloss=0.433333
New Linecode.LC_MRT_TRF_4_2635A_1 nphases=1 basefreq=60 r1=15000 x1=0 units=km normamps=0
New Linecode.LC_MRT_TRF_4_2635A_2 nphases=2 basefreq=60 r1=15000 x1=0 units=km normamps=0
New Linecode.LC_MRT_TRF_4_2635A_3 nphases=3 basefreq=60 r1=15000 x1=0 units=km normamps=0
New Linecode.LC_MRT_TRF_4_2635A_4 nphases=4 basefreq=60 r1=15000 x1=0 units=km normamps=0
New Line.Resist_MTR_TRF_4_2635A phases=1 bus1=444981.1 bus2= MRT_444981TRF_4_2635A.1 linecode=LC_MRT_TRF_4_2635A_1 length=0.001 units=km
New Reactor.TRF_4_2635A_R phases=1 bus1=ET4_2635.4 R=15 X=0 basefreq=60
New Transformer.TRF_4_2715A phases=3 windings=2 buses=[539661.1.2.3 ET4_2715.1.2.3.4] conns=[Delta Wye] kvs=[23.1 0.38] kvas=[75 75] %loadloss=3.84 %noloadloss=0.966666
New Reactor.TRF_4_2715A_R phases=1 bus1=ET4_2715.4 R=15 X=0 basefreq=60
New Transformer.TRF_4_2733A phases=1 windings=3 buses=[MRT_759301TRF_4_2733A.3 ET4_2733.1.4 ET4_2733.4.2] conns=[Wye Wye Wye] kvs=[13.3367912182804 0.22 0.22] kvas=[37.5 37.5 37.5] %loadloss=1.413333 %noloadloss=0.36
New Linecode.LC_MRT_TRF_4_2733A_1 nphases=1 basefreq=60 r1=15000 x1=0 units=km normamps=0
New Linecode.LC_MRT_TRF_4_2733A_2 nphases=2 basefreq=60 r1=15000 x1=0 units=km normamps=0
New Linecode.LC_MRT_TRF_4_2733A_3 nphases=3 basefreq=60 r1=15000 x1=0 units=km normamps=0
New Linecode.LC_MRT_TRF_4_2733A_4 nphases=4 basefreq=60 r1=15000 x1=0 units=km normamps=0
New Line.Resist_MTR_TRF_4_2733A phases=1 bus1=759301.3 bus2= MRT_759301TRF_4_2733A.3 linecode=LC_MRT_TRF_4_2733A_1 length=0.001 units=km
New Reactor.TRF_4_2733A_R phases=1 bus1=ET4_2733.4 R=15 X=0 basefreq=60
New Transformer.TRF_4_2894A phases=1 windings=3 buses=[MRT_222671TRF_4_2894A.2 ET4_2894.1.4 ET4_2894.4.2] conns=[Wye Wye Wye] kvs=[13.3367912182804 0.22 0.22] kvas=[10 10 10] %loadloss=1.95 %noloadloss=0.5
New Linecode.LC_MRT_TRF_4_2894A_1 nphases=1 basefreq=60 r1=15000 x1=0 units=km normamps=0
New Linecode.LC_MRT_TRF_4_2894A_2 nphases=2 basefreq=60 r1=15000 x1=0 units=km normamps=0
New Linecode.LC_MRT_TRF_4_2894A_3 nphases=3 basefreq=60 r1=15000 x1=0 units=km normamps=0
New Linecode.LC_MRT_TRF_4_2894A_4 nphases=4 basefreq=60 r1=15000 x1=0 units=km normamps=0
New Line.Resist_MTR_TRF_4_2894A phases=1 bus1=222671.2 bus2= MRT_222671TRF_4_2894A.2 linecode=LC_MRT_TRF_4_2894A_1 length=0.001 units=km
New Reactor.TRF_4_2894A_R phases=1 bus1=ET4_2894.4 R=15 X=0 basefreq=60
New Transformer.TRF_4_2978A phases=3 windings=2 buses=[625031.1.2.3 ET4_2978.1.2.3.4] conns=[Delta Wye] kvs=[23.1 0.38] kvas=[15 15] %loadloss=2.5 %noloadloss=0.633333
New Reactor.TRF_4_2978A_R phases=1 bus1=ET4_2978.4 R=15 X=0 basefreq=60
New Transformer.TRF_4_3135A phases=1 windings=3 buses=[MRT_771211TRF_4_3135A.2 ET4_3135.1.4 ET4_3135.4.2] conns=[Wye Wye Wye] kvs=[13.3367912182804 0.22 0.22] kvas=[25 25 25] %loadloss=1.56 %noloadloss=0.36
New Linecode.LC_MRT_TRF_4_3135A_1 nphases=1 basefreq=60 r1=15000 x1=0 units=km normamps=0
New Linecode.LC_MRT_TRF_4_3135A_2 nphases=2 basefreq=60 r1=15000 x1=0 units=km normamps=0
New Linecode.LC_MRT_TRF_4_3135A_3 nphases=3 basefreq=60 r1=15000 x1=0 units=km normamps=0
New Linecode.LC_MRT_TRF_4_3135A_4 nphases=4 basefreq=60 r1=15000 x1=0 units=km normamps=0
New Line.Resist_MTR_TRF_4_3135A phases=1 bus1=771211.2 bus2= MRT_771211TRF_4_3135A.2 linecode=LC_MRT_TRF_4_3135A_1 length=0.001 units=km
New Reactor.TRF_4_3135A_R phases=1 bus1=ET4_3135.4 R=15 X=0 basefreq=60
New Transformer.TRF_4_3198A phases=1 windings=3 buses=[MRT_630311TRF_4_3198A.3 ET4_3198.1.4 ET4_3198.4.2] conns=[Wye Wye Wye] kvs=[13.3367912182804 0.22 0.22] kvas=[25 25 25] %loadloss=1.56 %noloadloss=0.36
New Linecode.LC_MRT_TRF_4_3198A_1 nphases=1 basefreq=60 r1=15000 x1=0 units=km normamps=0
New Linecode.LC_MRT_TRF_4_3198A_2 nphases=2 basefreq=60 r1=15000 x1=0 units=km normamps=0
New Linecode.LC_MRT_TRF_4_3198A_3 nphases=3 basefreq=60 r1=15000 x1=0 units=km normamps=0
New Linecode.LC_MRT_TRF_4_3198A_4 nphases=4 basefreq=60 r1=15000 x1=0 units=km normamps=0
New Line.Resist_MTR_TRF_4_3198A phases=1 bus1=630311.3 bus2= MRT_630311TRF_4_3198A.3 linecode=LC_MRT_TRF_4_3198A_1 length=0.001 units=km
New Reactor.TRF_4_3198A_R phases=1 bus1=ET4_3198.4 R=15 X=0 basefreq=60
New Transformer.TRF_4_3212A phases=1 windings=3 buses=[MRT_118451TRF_4_3212A.3 ET4_3212.1.4 ET4_3212.4.2] conns=[Wye Wye Wye] kvs=[13.3367912182804 0.22 0.22] kvas=[5 5 5] %loadloss=2.1 %noloadloss=0.7
New Linecode.LC_MRT_TRF_4_3212A_1 nphases=1 basefreq=60 r1=15000 x1=0 units=km normamps=0
New Linecode.LC_MRT_TRF_4_3212A_2 nphases=2 basefreq=60 r1=15000 x1=0 units=km normamps=0
New Linecode.LC_MRT_TRF_4_3212A_3 nphases=3 basefreq=60 r1=15000 x1=0 units=km normamps=0
New Linecode.LC_MRT_TRF_4_3212A_4 nphases=4 basefreq=60 r1=15000 x1=0 units=km normamps=0
New Line.Resist_MTR_TRF_4_3212A phases=1 bus1=118451.3 bus2= MRT_118451TRF_4_3212A.3 linecode=LC_MRT_TRF_4_3212A_1 length=0.001 units=km
New Reactor.TRF_4_3212A_R phases=1 bus1=ET4_3212.4 R=15 X=0 basefreq=60
New Transformer.TRF_4_3313A phases=1 windings=3 buses=[MRT_126111TRF_4_3313A.1 ET4_3313.1.4 ET4_3313.4.2] conns=[Wye Wye Wye] kvs=[13.3367912182804 0.22 0.22] kvas=[5 5 5] %loadloss=2.1 %noloadloss=0.7
New Linecode.LC_MRT_TRF_4_3313A_1 nphases=1 basefreq=60 r1=15000 x1=0 units=km normamps=0
New Linecode.LC_MRT_TRF_4_3313A_2 nphases=2 basefreq=60 r1=15000 x1=0 units=km normamps=0
New Linecode.LC_MRT_TRF_4_3313A_3 nphases=3 basefreq=60 r1=15000 x1=0 units=km normamps=0
New Linecode.LC_MRT_TRF_4_3313A_4 nphases=4 basefreq=60 r1=15000 x1=0 units=km normamps=0
New Line.Resist_MTR_TRF_4_3313A phases=1 bus1=126111.1 bus2= MRT_126111TRF_4_3313A.1 linecode=LC_MRT_TRF_4_3313A_1 length=0.001 units=km
New Reactor.TRF_4_3313A_R phases=1 bus1=ET4_3313.4 R=15 X=0 basefreq=60
New Transformer.TRF_4_3487A phases=1 windings=3 buses=[MRT_556061TRF_4_3487A.1 ET4_3487.1.4 ET4_3487.4.2] conns=[Wye Wye Wye] kvs=[13.3367912182804 0.22 0.22] kvas=[5 5 5] %loadloss=2.1 %noloadloss=0.7
New Linecode.LC_MRT_TRF_4_3487A_1 nphases=1 basefreq=60 r1=15000 x1=0 units=km normamps=0
New Linecode.LC_MRT_TRF_4_3487A_2 nphases=2 basefreq=60 r1=15000 x1=0 units=km normamps=0
New Linecode.LC_MRT_TRF_4_3487A_3 nphases=3 basefreq=60 r1=15000 x1=0 units=km normamps=0
New Linecode.LC_MRT_TRF_4_3487A_4 nphases=4 basefreq=60 r1=15000 x1=0 units=km normamps=0
New Line.Resist_MTR_TRF_4_3487A phases=1 bus1=556061.1 bus2= MRT_556061TRF_4_3487A.1 linecode=LC_MRT_TRF_4_3487A_1 length=0.001 units=km
New Reactor.TRF_4_3487A_R phases=1 bus1=ET4_3487.4 R=15 X=0 basefreq=60
New Transformer.TRF_4_3492A phases=1 windings=3 buses=[MRT_562611TRF_4_3492A.1 ET4_3492.1.4 ET4_3492.4.2] conns=[Wye Wye Wye] kvs=[13.3367912182804 0.22 0.22] kvas=[15 15 15] %loadloss=1.766667 %noloadloss=0.433333
New Linecode.LC_MRT_TRF_4_3492A_1 nphases=1 basefreq=60 r1=15000 x1=0 units=km normamps=0
New Linecode.LC_MRT_TRF_4_3492A_2 nphases=2 basefreq=60 r1=15000 x1=0 units=km normamps=0
New Linecode.LC_MRT_TRF_4_3492A_3 nphases=3 basefreq=60 r1=15000 x1=0 units=km normamps=0
New Linecode.LC_MRT_TRF_4_3492A_4 nphases=4 basefreq=60 r1=15000 x1=0 units=km normamps=0
New Line.Resist_MTR_TRF_4_3492A phases=1 bus1=562611.1 bus2= MRT_562611TRF_4_3492A.1 linecode=LC_MRT_TRF_4_3492A_1 length=0.001 units=km
New Reactor.TRF_4_3492A_R phases=1 bus1=ET4_3492.4 R=15 X=0 basefreq=60
New Transformer.TRF_4_3585A phases=3 windings=2 buses=[188051.1.2.3 ET4_3585.1.2.3.4] conns=[Delta Wye] kvs=[23.1 0.38] kvas=[45 45] %loadloss=1.866667 %noloadloss=0.477777
New Reactor.TRF_4_3585A_R phases=1 bus1=ET4_3585.4 R=15 X=0 basefreq=60
New Transformer.TRF_4_3843A phases=1 windings=3 buses=[MRT_686511TRF_4_3843A.1 ET4_3843.1.4 ET4_3843.4.2] conns=[Wye Wye Wye] kvs=[13.3367912182804 0.22 0.22] kvas=[10 10 10] %loadloss=1.95 %noloadloss=0.5
New Linecode.LC_MRT_TRF_4_3843A_1 nphases=1 basefreq=60 r1=15000 x1=0 units=km normamps=0
New Linecode.LC_MRT_TRF_4_3843A_2 nphases=2 basefreq=60 r1=15000 x1=0 units=km normamps=0
New Linecode.LC_MRT_TRF_4_3843A_3 nphases=3 basefreq=60 r1=15000 x1=0 units=km normamps=0
New Linecode.LC_MRT_TRF_4_3843A_4 nphases=4 basefreq=60 r1=15000 x1=0 units=km normamps=0
New Line.Resist_MTR_TRF_4_3843A phases=1 bus1=686511.1 bus2= MRT_686511TRF_4_3843A.1 linecode=LC_MRT_TRF_4_3843A_1 length=0.001 units=km
New Reactor.TRF_4_3843A_R phases=1 bus1=ET4_3843.4 R=15 X=0 basefreq=60
New Transformer.TRF_4_3967A phases=1 windings=3 buses=[MRT_118361TRF_4_3967A.3 ET4_3967.1.4 ET4_3967.4.2] conns=[Wye Wye Wye] kvs=[13.3367912182804 0.22 0.22] kvas=[10 10 10] %loadloss=1.95 %noloadloss=0.5
New Linecode.LC_MRT_TRF_4_3967A_1 nphases=1 basefreq=60 r1=15000 x1=0 units=km normamps=0
New Linecode.LC_MRT_TRF_4_3967A_2 nphases=2 basefreq=60 r1=15000 x1=0 units=km normamps=0
New Linecode.LC_MRT_TRF_4_3967A_3 nphases=3 basefreq=60 r1=15000 x1=0 units=km normamps=0
New Linecode.LC_MRT_TRF_4_3967A_4 nphases=4 basefreq=60 r1=15000 x1=0 units=km normamps=0
New Line.Resist_MTR_TRF_4_3967A phases=1 bus1=118361.3 bus2= MRT_118361TRF_4_3967A.3 linecode=LC_MRT_TRF_4_3967A_1 length=0.001 units=km
New Reactor.TRF_4_3967A_R phases=1 bus1=ET4_3967.4 R=15 X=0 basefreq=60
New Transformer.TRF_4_4055A phases=1 windings=3 buses=[MRT_118411TRF_4_4055A.1 ET4_4055.1.4 ET4_4055.4.2] conns=[Wye Wye Wye] kvs=[13.3367912182804 0.22 0.22] kvas=[25 25 25] %loadloss=1.56 %noloadloss=0.36
New Linecode.LC_MRT_TRF_4_4055A_1 nphases=1 basefreq=60 r1=15000 x1=0 units=km normamps=0
New Linecode.LC_MRT_TRF_4_4055A_2 nphases=2 basefreq=60 r1=15000 x1=0 units=km normamps=0
New Linecode.LC_MRT_TRF_4_4055A_3 nphases=3 basefreq=60 r1=15000 x1=0 units=km normamps=0
New Linecode.LC_MRT_TRF_4_4055A_4 nphases=4 basefreq=60 r1=15000 x1=0 units=km normamps=0
New Line.Resist_MTR_TRF_4_4055A phases=1 bus1=118411.1 bus2= MRT_118411TRF_4_4055A.1 linecode=LC_MRT_TRF_4_4055A_1 length=0.001 units=km
New Reactor.TRF_4_4055A_R phases=1 bus1=ET4_4055.4 R=15 X=0 basefreq=60
New Transformer.TRF_4_4115A phases=3 windings=2 buses=[644541.1.2.3 ET4_4115.1.2.3.4] conns=[Delta Wye] kvs=[23.1 0.38] kvas=[30 30] %loadloss=2.1 %noloadloss=0.533333
New Reactor.TRF_4_4115A_R phases=1 bus1=ET4_4115.4 R=15 X=0 basefreq=60
New Transformer.TRF_4_4238A phases=1 windings=3 buses=[MRT_282341TRF_4_4238A.2 ET4_4238.1.4 ET4_4238.4.2] conns=[Wye Wye Wye] kvs=[13.3367912182804 0.22 0.22] kvas=[15 15 15] %loadloss=1.766667 %noloadloss=0.433333
New Linecode.LC_MRT_TRF_4_4238A_1 nphases=1 basefreq=60 r1=15000 x1=0 units=km normamps=0
New Linecode.LC_MRT_TRF_4_4238A_2 nphases=2 basefreq=60 r1=15000 x1=0 units=km normamps=0
New Linecode.LC_MRT_TRF_4_4238A_3 nphases=3 basefreq=60 r1=15000 x1=0 units=km normamps=0
New Linecode.LC_MRT_TRF_4_4238A_4 nphases=4 basefreq=60 r1=15000 x1=0 units=km normamps=0
New Line.Resist_MTR_TRF_4_4238A phases=1 bus1=282341.2 bus2= MRT_282341TRF_4_4238A.2 linecode=LC_MRT_TRF_4_4238A_1 length=0.001 units=km
New Reactor.TRF_4_4238A_R phases=1 bus1=ET4_4238.4 R=15 X=0 basefreq=60
New Transformer.TRF_4_4392A phases=3 windings=2 buses=[180851.1.2.3 ET4_4392.1.2.3.4] conns=[Delta Wye] kvs=[23.1 0.38] kvas=[30 30] %loadloss=2.1 %noloadloss=0.533333
New Reactor.TRF_4_4392A_R phases=1 bus1=ET4_4392.4 R=15 X=0 basefreq=60
New Transformer.TRF_4_5018A phases=1 windings=3 buses=[MRT_97881TRF_4_5018A.1 ET4_5018.1.4 ET4_5018.4.2] conns=[Wye Wye Wye] kvs=[13.3367912182804 0.22 0.22] kvas=[15 15 15] %loadloss=1.766667 %noloadloss=0.433333
New Linecode.LC_MRT_TRF_4_5018A_1 nphases=1 basefreq=60 r1=15000 x1=0 units=km normamps=0
New Linecode.LC_MRT_TRF_4_5018A_2 nphases=2 basefreq=60 r1=15000 x1=0 units=km normamps=0
New Linecode.LC_MRT_TRF_4_5018A_3 nphases=3 basefreq=60 r1=15000 x1=0 units=km normamps=0
New Linecode.LC_MRT_TRF_4_5018A_4 nphases=4 basefreq=60 r1=15000 x1=0 units=km normamps=0
New Line.Resist_MTR_TRF_4_5018A phases=1 bus1=97881.1 bus2= MRT_97881TRF_4_5018A.1 linecode=LC_MRT_TRF_4_5018A_1 length=0.001 units=km
New Reactor.TRF_4_5018A_R phases=1 bus1=ET4_5018.4 R=15 X=0 basefreq=60
New Transformer.TRF_4_506A phases=3 windings=2 buses=[122631.1.2.3 ET4_506.1.2.3.4] conns=[Delta Wye] kvs=[23.1 0.38] kvas=[45 45] %loadloss=1.866667 %noloadloss=0.477777
New Reactor.TRF_4_506A_R phases=1 bus1=ET4_506.4 R=15 X=0 basefreq=60
New Transformer.TRF_4_5065A phases=1 windings=3 buses=[MRT_122451TRF_4_5065A.3 ET4_5065.1.4 ET4_5065.4.2] conns=[Wye Wye Wye] kvs=[13.3367912182804 0.22 0.22] kvas=[10 10 10] %loadloss=1.95 %noloadloss=0.5
New Linecode.LC_MRT_TRF_4_5065A_1 nphases=1 basefreq=60 r1=15000 x1=0 units=km normamps=0
New Linecode.LC_MRT_TRF_4_5065A_2 nphases=2 basefreq=60 r1=15000 x1=0 units=km normamps=0
New Linecode.LC_MRT_TRF_4_5065A_3 nphases=3 basefreq=60 r1=15000 x1=0 units=km normamps=0
New Linecode.LC_MRT_TRF_4_5065A_4 nphases=4 basefreq=60 r1=15000 x1=0 units=km normamps=0
New Line.Resist_MTR_TRF_4_5065A phases=1 bus1=122451.3 bus2= MRT_122451TRF_4_5065A.3 linecode=LC_MRT_TRF_4_5065A_1 length=0.001 units=km
New Reactor.TRF_4_5065A_R phases=1 bus1=ET4_5065.4 R=15 X=0 basefreq=60
New Transformer.TRF_4_5069A phases=1 windings=3 buses=[MRT_220601TRF_4_5069A.3 ET4_5069.1.4 ET4_5069.4.2] conns=[Wye Wye Wye] kvs=[13.3367912182804 0.22 0.22] kvas=[25 25 25] %loadloss=1.56 %noloadloss=0.36
New Linecode.LC_MRT_TRF_4_5069A_1 nphases=1 basefreq=60 r1=15000 x1=0 units=km normamps=0
New Linecode.LC_MRT_TRF_4_5069A_2 nphases=2 basefreq=60 r1=15000 x1=0 units=km normamps=0
New Linecode.LC_MRT_TRF_4_5069A_3 nphases=3 basefreq=60 r1=15000 x1=0 units=km normamps=0
New Linecode.LC_MRT_TRF_4_5069A_4 nphases=4 basefreq=60 r1=15000 x1=0 units=km normamps=0
New Line.Resist_MTR_TRF_4_5069A phases=1 bus1=220601.3 bus2= MRT_220601TRF_4_5069A.3 linecode=LC_MRT_TRF_4_5069A_1 length=0.001 units=km
New Reactor.TRF_4_5069A_R phases=1 bus1=ET4_5069.4 R=15 X=0 basefreq=60
New Transformer.TRF_4_507A phases=1 windings=3 buses=[85311.3.1 ET4_507.1.4 ET4_507.4.2] conns=[Delta Wye Wye] kvs=[23.1 0.22 0.22] kvas=[25 25 25] %loadloss=1.68 %noloadloss=0.4
New Reactor.TRF_4_507A_R phases=1 bus1=ET4_507.4 R=15 X=0 basefreq=60
New Transformer.TRF_4_5095A phases=1 windings=3 buses=[MRT_743631TRF_4_5095A.3 ET4_5095.1.4 ET4_5095.4.2] conns=[Wye Wye Wye] kvs=[13.3367912182804 0.22 0.22] kvas=[15 15 15] %loadloss=1.766667 %noloadloss=0.433333
New Linecode.LC_MRT_TRF_4_5095A_1 nphases=1 basefreq=60 r1=15000 x1=0 units=km normamps=0
New Linecode.LC_MRT_TRF_4_5095A_2 nphases=2 basefreq=60 r1=15000 x1=0 units=km normamps=0
New Linecode.LC_MRT_TRF_4_5095A_3 nphases=3 basefreq=60 r1=15000 x1=0 units=km normamps=0
New Linecode.LC_MRT_TRF_4_5095A_4 nphases=4 basefreq=60 r1=15000 x1=0 units=km normamps=0
New Line.Resist_MTR_TRF_4_5095A phases=1 bus1=743631.3 bus2= MRT_743631TRF_4_5095A.3 linecode=LC_MRT_TRF_4_5095A_1 length=0.001 units=km
New Reactor.TRF_4_5095A_R phases=1 bus1=ET4_5095.4 R=15 X=0 basefreq=60
New Transformer.TRF_4_5096A phases=3 windings=2 buses=[332141.1.2.3 ET4_5096.1.2.3.4] conns=[Delta Wye] kvs=[23.1 0.38] kvas=[30 30] %loadloss=2.1 %noloadloss=0.533333
New Reactor.TRF_4_5096A_R phases=1 bus1=ET4_5096.4 R=15 X=0 basefreq=60
New Transformer.TRF_4_5097A phases=1 windings=3 buses=[MRT_143591TRF_4_5097A.1 ET4_5097.1.4 ET4_5097.4.2] conns=[Wye Wye Wye] kvs=[13.3367912182804 0.22 0.22] kvas=[10 10 10] %loadloss=1.95 %noloadloss=0.5
New Linecode.LC_MRT_TRF_4_5097A_1 nphases=1 basefreq=60 r1=15000 x1=0 units=km normamps=0
New Linecode.LC_MRT_TRF_4_5097A_2 nphases=2 basefreq=60 r1=15000 x1=0 units=km normamps=0
New Linecode.LC_MRT_TRF_4_5097A_3 nphases=3 basefreq=60 r1=15000 x1=0 units=km normamps=0
New Linecode.LC_MRT_TRF_4_5097A_4 nphases=4 basefreq=60 r1=15000 x1=0 units=km normamps=0
New Line.Resist_MTR_TRF_4_5097A phases=1 bus1=143591.1 bus2= MRT_143591TRF_4_5097A.1 linecode=LC_MRT_TRF_4_5097A_1 length=0.001 units=km
New Reactor.TRF_4_5097A_R phases=1 bus1=ET4_5097.4 R=15 X=0 basefreq=60
New Transformer.TRF_4_5371A phases=1 windings=3 buses=[MRT_197861TRF_4_5371A.3 ET4_5371.1.4 ET4_5371.4.2] conns=[Wye Wye Wye] kvs=[13.3367912182804 0.22 0.22] kvas=[10 10 10] %loadloss=1.95 %noloadloss=0.5
New Linecode.LC_MRT_TRF_4_5371A_1 nphases=1 basefreq=60 r1=15000 x1=0 units=km normamps=0
New Linecode.LC_MRT_TRF_4_5371A_2 nphases=2 basefreq=60 r1=15000 x1=0 units=km normamps=0
New Linecode.LC_MRT_TRF_4_5371A_3 nphases=3 basefreq=60 r1=15000 x1=0 units=km normamps=0
New Linecode.LC_MRT_TRF_4_5371A_4 nphases=4 basefreq=60 r1=15000 x1=0 units=km normamps=0
New Line.Resist_MTR_TRF_4_5371A phases=1 bus1=197861.3 bus2= MRT_197861TRF_4_5371A.3 linecode=LC_MRT_TRF_4_5371A_1 length=0.001 units=km
New Reactor.TRF_4_5371A_R phases=1 bus1=ET4_5371.4 R=15 X=0 basefreq=60
New Transformer.TRF_4_5416A phases=3 windings=2 buses=[682891.1.2.3 ET4_5416.1.2.3.4] conns=[Delta Wye] kvs=[23.1 0.38] kvas=[15 15] %loadloss=2.5 %noloadloss=0.633333
New Reactor.TRF_4_5416A_R phases=1 bus1=ET4_5416.4 R=15 X=0 basefreq=60
New Transformer.TRF_4_5417A phases=3 windings=2 buses=[682841.1.2.3 ET4_5417.1.2.3.4] conns=[Delta Wye] kvs=[23.1 0.38] kvas=[15 15] %loadloss=2.5 %noloadloss=0.633333
New Reactor.TRF_4_5417A_R phases=1 bus1=ET4_5417.4 R=15 X=0 basefreq=60
New Transformer.TRF_4_5448A phases=3 windings=2 buses=[790921.1.2.3 ET4_5448.1.2.3.4] conns=[Delta Wye] kvs=[23.1 0.38] kvas=[30 30] %loadloss=2.1 %noloadloss=0.533333
New Reactor.TRF_4_5448A_R phases=1 bus1=ET4_5448.4 R=15 X=0 basefreq=60
New Transformer.TRF_4_5564A phases=3 windings=2 buses=[749131.1.2.3 ET4_5564.1.2.3.4] conns=[Delta Wye] kvs=[23.1 0.38] kvas=[112.5 112.5] %loadloss=1.475556 %noloadloss=0.377777
New Reactor.TRF_4_5564A_R phases=1 bus1=ET4_5564.4 R=15 X=0 basefreq=60
New Transformer.TRF_4_5655A phases=1 windings=3 buses=[MRT_749341TRF_4_5655A.2 ET4_5655.1.4 ET4_5655.4.2] conns=[Wye Wye Wye] kvs=[13.3367912182804 0.22 0.22] kvas=[10 10 10] %loadloss=1.95 %noloadloss=0.5
New Linecode.LC_MRT_TRF_4_5655A_1 nphases=1 basefreq=60 r1=15000 x1=0 units=km normamps=0
New Linecode.LC_MRT_TRF_4_5655A_2 nphases=2 basefreq=60 r1=15000 x1=0 units=km normamps=0
New Linecode.LC_MRT_TRF_4_5655A_3 nphases=3 basefreq=60 r1=15000 x1=0 units=km normamps=0
New Linecode.LC_MRT_TRF_4_5655A_4 nphases=4 basefreq=60 r1=15000 x1=0 units=km normamps=0
New Line.Resist_MTR_TRF_4_5655A phases=1 bus1=749341.2 bus2= MRT_749341TRF_4_5655A.2 linecode=LC_MRT_TRF_4_5655A_1 length=0.001 units=km
New Reactor.TRF_4_5655A_R phases=1 bus1=ET4_5655.4 R=15 X=0 basefreq=60
New Transformer.TRF_4_5678A phases=1 windings=3 buses=[MRT_759221TRF_4_5678A.3 ET4_5678.1.4 ET4_5678.4.2] conns=[Wye Wye Wye] kvs=[13.3367912182804 0.22 0.22] kvas=[10 10 10] %loadloss=1.95 %noloadloss=0.5
New Linecode.LC_MRT_TRF_4_5678A_1 nphases=1 basefreq=60 r1=15000 x1=0 units=km normamps=0
New Linecode.LC_MRT_TRF_4_5678A_2 nphases=2 basefreq=60 r1=15000 x1=0 units=km normamps=0
New Linecode.LC_MRT_TRF_4_5678A_3 nphases=3 basefreq=60 r1=15000 x1=0 units=km normamps=0
New Linecode.LC_MRT_TRF_4_5678A_4 nphases=4 basefreq=60 r1=15000 x1=0 units=km normamps=0
New Line.Resist_MTR_TRF_4_5678A phases=1 bus1=759221.3 bus2= MRT_759221TRF_4_5678A.3 linecode=LC_MRT_TRF_4_5678A_1 length=0.001 units=km
New Reactor.TRF_4_5678A_R phases=1 bus1=ET4_5678.4 R=15 X=0 basefreq=60
New Transformer.TRF_4_5836A phases=3 windings=2 buses=[771201.1.2.3 ET4_5836.1.2.3.4] conns=[Delta Wye] kvs=[23.1 0.38] kvas=[15 15] %loadloss=2.5 %noloadloss=0.633333
New Reactor.TRF_4_5836A_R phases=1 bus1=ET4_5836.4 R=15 X=0 basefreq=60
New Transformer.TRF_4_6070A phases=3 windings=2 buses=[794201.1.2.3 ET4_6070.1.2.3.4] conns=[Delta Wye] kvs=[23.1 0.38] kvas=[30 30] %loadloss=2.1 %noloadloss=0.533333
New Reactor.TRF_4_6070A_R phases=1 bus1=ET4_6070.4 R=15 X=0 basefreq=60
New Transformer.TRF_4_6178A phases=3 windings=2 buses=[797461.1.2.3 ET4_6178.1.2.3.4] conns=[Delta Wye] kvs=[23.1 0.38] kvas=[15 15] %loadloss=2.5 %noloadloss=0.633333
New Reactor.TRF_4_6178A_R phases=1 bus1=ET4_6178.4 R=15 X=0 basefreq=60
New Transformer.TRF_4_6196A phases=1 windings=3 buses=[MRT_749311TRF_4_6196A.2 ET4_6196.1.4 ET4_6196.4.2] conns=[Wye Wye Wye] kvs=[13.3367912182804 0.22 0.22] kvas=[10 10 10] %loadloss=1.95 %noloadloss=0.5
New Linecode.LC_MRT_TRF_4_6196A_1 nphases=1 basefreq=60 r1=15000 x1=0 units=km normamps=0
New Linecode.LC_MRT_TRF_4_6196A_2 nphases=2 basefreq=60 r1=15000 x1=0 units=km normamps=0
New Linecode.LC_MRT_TRF_4_6196A_3 nphases=3 basefreq=60 r1=15000 x1=0 units=km normamps=0
New Linecode.LC_MRT_TRF_4_6196A_4 nphases=4 basefreq=60 r1=15000 x1=0 units=km normamps=0
New Line.Resist_MTR_TRF_4_6196A phases=1 bus1=749311.2 bus2= MRT_749311TRF_4_6196A.2 linecode=LC_MRT_TRF_4_6196A_1 length=0.001 units=km
New Reactor.TRF_4_6196A_R phases=1 bus1=ET4_6196.4 R=15 X=0 basefreq=60
New Transformer.TRF_4_6239A phases=1 windings=3 buses=[MRT_33041TRF_4_6239A.1 ET4_6239.1.4 ET4_6239.4.2] conns=[Wye Wye Wye] kvs=[13.3367912182804 0.22 0.22] kvas=[15 15 15] %loadloss=1.766667 %noloadloss=0.433333
New Linecode.LC_MRT_TRF_4_6239A_1 nphases=1 basefreq=60 r1=15000 x1=0 units=km normamps=0
New Linecode.LC_MRT_TRF_4_6239A_2 nphases=2 basefreq=60 r1=15000 x1=0 units=km normamps=0
New Linecode.LC_MRT_TRF_4_6239A_3 nphases=3 basefreq=60 r1=15000 x1=0 units=km normamps=0
New Linecode.LC_MRT_TRF_4_6239A_4 nphases=4 basefreq=60 r1=15000 x1=0 units=km normamps=0
New Line.Resist_MTR_TRF_4_6239A phases=1 bus1=33041.1 bus2= MRT_33041TRF_4_6239A.1 linecode=LC_MRT_TRF_4_6239A_1 length=0.001 units=km
New Reactor.TRF_4_6239A_R phases=1 bus1=ET4_6239.4 R=15 X=0 basefreq=60
New Transformer.TRF_4_6388A phases=3 windings=2 buses=[811931.1.2.3 ET4_6388.1.2.3.4] conns=[Delta Wye] kvs=[23.1 0.38] kvas=[15 15] %loadloss=2.5 %noloadloss=0.633333
New Reactor.TRF_4_6388A_R phases=1 bus1=ET4_6388.4 R=15 X=0 basefreq=60
New Transformer.TRF_4_6472A phases=3 windings=2 buses=[331331.1.2.3 ET4_6472.1.2.3.4] conns=[Delta Wye] kvs=[23.1 0.38] kvas=[30 30] %loadloss=2.1 %noloadloss=0.533333
New Reactor.TRF_4_6472A_R phases=1 bus1=ET4_6472.4 R=15 X=0 basefreq=60
New Transformer.TRF_4_681A phases=1 windings=3 buses=[MRT_347831TRF_4_681A.1 ET4_681.1.4 ET4_681.4.2] conns=[Wye Wye Wye] kvs=[13.3367912182804 0.22 0.22] kvas=[15 15 15] %loadloss=1.766667 %noloadloss=0.433333
New Linecode.LC_MRT_TRF_4_681A_1 nphases=1 basefreq=60 r1=15000 x1=0 units=km normamps=0
New Linecode.LC_MRT_TRF_4_681A_2 nphases=2 basefreq=60 r1=15000 x1=0 units=km normamps=0
New Linecode.LC_MRT_TRF_4_681A_3 nphases=3 basefreq=60 r1=15000 x1=0 units=km normamps=0
New Linecode.LC_MRT_TRF_4_681A_4 nphases=4 basefreq=60 r1=15000 x1=0 units=km normamps=0
...