examples/feeders/1_ALPE_1/008_segmentoBT.dss
New Line.SBT_31627 phases=2 bus1=ET25_1733.1.4 bus2=BT343122.1.4 linecode=60_2 length=0.04885 units=km
New Line.SBT_2704 phases=4 bus1=BT184711.1.2.3.4 bus2=BT345781.1.2.3.4 linecode=73_4 length=0.05803 units=km
New Line.SBT_28743 phases=4 bus1=BT345781.1.2.3.4 bus2=BT345791.1.2.3.4 linecode=73_4 length=0.04743 units=km
New Line.SBT_3585 phases=4 bus1=ET4_10.1.2.3.4 bus2=BT331351.1.2.3.4 linecode=73_4 length=0.08684 units=km
New Line.SBT_3708 phases=4 bus1=BT184721.1.2.3.4 bus2=BT184711.1.2.3.4 linecode=73_4 length=0.04418 units=km
New Line.SBT_15592 phases=4 bus1=BT184721.1.2.3.4 bus2=BT644491.1.2.3.4 linecode=97_4 length=0.03321 units=km
New Line.SBT_16421 phases=4 bus1=BT184731.1.2.3.4 bus2=BT200471.1.2.3.4 linecode=97_4 length=0.01 units=km
New Line.SBT_20553 phases=4 bus1=ET4_10.1.2.3.4 bus2=BT184731.1.2.3.4 linecode=97_4 length=0.08709 units=km
New Line.SBT_21003 phases=4 bus1=BT200471.1.2.3.4 bus2=BT184721.1.2.3.4 linecode=97_4 length=0.03025 units=km
New Line.SBT_16219 phases=3 bus1=BT86191.1.2.4 bus2=BT706511.1.2.4 linecode=44_3 length=0.05 units=km
New Line.SBT_13011 phases=3 bus1=BT86201.1.2.4 bus2=BT610291.1.2.4 linecode=44_3 length=0.04105 units=km
New Line.SBT_21358 phases=3 bus1=ET4_1295.1.2.4 bus2=BT103651.1.2.4 linecode=44_3 length=0.11125 units=km
New Line.SBT_21359 phases=2 bus1=ET4_1295.1.4 bus2=BT103661.1.4 linecode=60_2 length=0.20459 units=km
New Line.SBT_28702 phases=3 bus1=BT103671.1.2.4 bus2=BT86191.1.2.4 linecode=44_3 length=0.1044 units=km
New Line.SBT_4727 phases=3 bus1=ET4_1295.1.2.4 bus2=BT103671.1.2.4 linecode=44_3 length=0.117 units=km
New Line.SBT_5009 phases=3 bus1=BT103671.1.2.4 bus2=BT103681.1.2.4 linecode=44_3 length=0.08633 units=km
New Line.SBT_5023 phases=3 bus1=BT86191.1.2.4 bus2=BT86201.1.2.4 linecode=44_3 length=0.13697 units=km
New Line.SBT_5024 phases=2 bus1=BT86271.1.4 bus2=BT86281.1.4 linecode=60_2 length=0.07267 units=km
New Line.SBT_5025 phases=3 bus1=ET4_1296.1.2.4 bus2=BT86271.1.2.4 linecode=44_3 length=0.03614 units=km
New Line.SBT_4966 phases=3 bus1=ET4_1296.1.2.4 bus2=BT86251.1.2.4 linecode=44_3 length=0.05609 units=km
New Line.SBT_4968 phases=2 bus1=BT122461.2.4 bus2=BT122471.2.4 linecode=60_2 length=0.08476 units=km
New Line.SBT_4360 phases=3 bus1=BT86221.1.2.4 bus2=BT86211.1.2.4 linecode=44_3 length=0.08287 units=km
New Line.SBT_4365 phases=3 bus1=BT122501.1.2.4 bus2=BT122511.1.2.4 linecode=44_3 length=0.10072 units=km
New Line.SBT_4366 phases=3 bus1=BT122511.1.2.4 bus2=BT122521.1.2.4 linecode=44_3 length=0.05532 units=km
New Line.SBT_4367 phases=3 bus1=BT86211.1.2.4 bus2=BT99951.1.2.4 linecode=44_3 length=0.14073 units=km
New Line.SBT_4368 phases=2 bus1=BT122521.1.4 bus2=BT122531.1.4 linecode=60_2 length=0.26715 units=km
New Line.SBT_4544 phases=3 bus1=BT86231.1.2.4 bus2=BT86221.1.2.4 linecode=44_3 length=0.09043 units=km
New Line.SBT_4637 phases=3 bus1=BT122491.1.2.4 bus2=BT122501.1.2.4 linecode=44_3 length=0.06147 units=km
New Line.SBT_4638 phases=2 bus1=BT122471.2.4 bus2=BT122481.2.4 linecode=60_2 length=0.07569 units=km
New Line.SBT_21337 phases=3 bus1=BT86271.1.2.4 bus2=BT122461.1.2.4 linecode=44_3 length=0.17053 units=km
New Line.SBT_21338 phases=3 bus1=BT122461.1.2.4 bus2=BT122491.1.2.4 linecode=44_3 length=0.05281 units=km
New Line.SBT_21339 phases=3 bus1=BT86251.1.2.4 bus2=BT86231.1.2.4 linecode=44_3 length=0.10066 units=km
New Line.SBT_21096 phases=2 bus1=BT86281.1.4 bus2=BT86291.1.4 linecode=60_2 length=0.10234 units=km
New Line.SBT_21118 phases=4 bus1=ET4_1399.1.2.3.4 bus2=BT331291.1.2.3.4 linecode=97_4 length=0.05745 units=km
New Line.SBT_20995 phases=4 bus1=ET4_1399.1.2.3.4 bus2=BT749121.1.2.3.4 linecode=97_4 length=0.02 units=km
New Line.SBT_20551 phases=4 bus1=BT331141.1.2.3.4 bus2=BT331151.1.2.3.4 linecode=73_4 length=0.05515 units=km
New Line.SBT_20552 phases=4 bus1=BT331161.1.2.3.4 bus2=BT331172.1.2.3.4 linecode=73_4 length=0.03314 units=km
New Line.SBT_14860 phases=4 bus1=BT331151.1.2.3.4 bus2=BT331161.1.2.3.4 linecode=73_4 length=0.03202 units=km
New Line.SBT_26417 phases=4 bus1=BT331251.1.2.3.4 bus2=BT243351.1.2.3.4 linecode=73_4 length=0.08914 units=km
New Line.SBT_4587 phases=4 bus1=BT331261.1.2.3.4 bus2=BT331271.1.2.3.4 linecode=97_4 length=0.04851 units=km
New Line.SBT_4369 phases=4 bus1=ET4_1399.1.2.3.4 bus2=BT331141.1.2.3.4 linecode=73_4 length=0.04518 units=km
New Line.SBT_29223 phases=4 bus1=BT749121.1.2.3.4 bus2=BT331261.1.2.3.4 linecode=97_4 length=0.01544 units=km
New Line.SBT_31407 phases=4 bus1=BT331261.1.2.3.4 bus2=BT769681.1.2.3.4 linecode=141_4 length=0.02542 units=km
New Line.SBT_31408 phases=4 bus1=BT769681.1.2.3.4 bus2=BT769691.1.2.3.4 linecode=141_4 length=0.03268 units=km
New Line.SBT_31409 phases=4 bus1=BT769691.1.2.3.4 bus2=BT769701.1.2.3.4 linecode=141_4 length=0.03252 units=km
New Line.SBT_31410 phases=4 bus1=BT769701.1.2.3.4 bus2=BT769711.1.2.3.4 linecode=141_4 length=0.03233 units=km
New Line.SBT_31411 phases=4 bus1=BT769711.1.2.3.4 bus2=BT769721.1.2.3.4 linecode=141_4 length=0.03284 units=km
...